12
	Energy: -145738.0960982
C          0.00000        1.39699        0.00000
C          1.20982        0.69849        0.00000
C         -1.20982        0.69849        0.00000
C          1.20982       -0.69849        0.00000
H          2.15124        1.24202       -0.00000
H          0.00000        2.48404       -0.00000
C         -1.20982       -0.69849        0.00000
H         -2.15124        1.24202       -0.00000
C         -0.00000       -1.39699        0.00000
H          2.15124       -1.24202       -0.00000
H         -2.15124       -1.24202       -0.00000
H         -0.00000       -2.48404       -0.00000
